Version 4
SHEET 1 1240 680
WIRE -384 -384 -512 -384
WIRE 688 -384 496 -384
WIRE -64 -304 -64 -352
WIRE -64 -304 -112 -304
WIRE 224 -304 224 -352
WIRE 272 -304 224 -304
WIRE 688 -272 688 -384
WIRE -112 -208 -112 -304
WIRE -112 -208 -128 -208
WIRE 272 -208 272 -304
WIRE 320 -208 272 -208
WIRE -256 -192 -272 -192
WIRE 464 -192 448 -192
WIRE -112 -176 -128 -176
WIRE 320 -176 304 -176
WIRE -112 -144 -128 -144
WIRE -80 -144 -112 -144
WIRE 16 -144 0 -144
WIRE 64 -144 16 -144
WIRE 288 -144 112 -144
WIRE 320 -144 288 -144
WIRE -512 -128 -512 -384
WIRE 688 -128 688 -192
WIRE -256 -80 -256 -160
WIRE -224 -80 -256 -80
WIRE -112 -80 -112 -144
WIRE -112 -80 -144 -80
WIRE 288 -80 288 -144
WIRE 320 -80 288 -80
WIRE 448 -80 448 -160
WIRE 448 -80 400 -80
WIRE -272 -64 -272 -192
WIRE -272 -64 -384 -64
WIRE 464 -64 464 -192
WIRE 496 -64 464 -64
WIRE 16 -48 16 -64
WIRE -80 32 -160 32
WIRE 64 32 64 -144
WIRE 64 32 0 32
WIRE -512 48 -512 -48
WIRE -384 48 -384 16
WIRE -384 48 -512 48
WIRE 496 48 496 16
WIRE 688 48 688 -48
WIRE 688 48 496 48
WIRE -384 64 -384 48
WIRE 496 64 496 48
WIRE -48 96 -96 96
WIRE 1072 96 1008 96
WIRE -48 112 -48 96
WIRE -16 112 -48 112
WIRE 896 112 848 112
WIRE 1008 112 1008 96
WIRE 1008 112 976 112
WIRE 64 128 64 32
WIRE 64 128 48 128
WIRE 112 160 112 -144
WIRE 112 160 48 160
WIRE -160 176 -160 32
WIRE -16 176 -160 176
WIRE 672 176 656 176
WIRE 768 176 752 176
WIRE 848 176 768 176
WIRE 1072 176 848 176
WIRE 192 192 192 144
WIRE 240 192 192 192
WIRE 432 192 432 160
WIRE 432 192 368 192
WIRE 592 192 432 192
WIRE 240 224 240 192
WIRE 272 224 240 224
WIRE 368 224 368 192
WIRE 368 224 336 224
WIRE 768 240 768 176
WIRE 272 256 208 256
WIRE 352 256 336 256
WIRE -160 288 -160 176
WIRE 32 288 -160 288
WIRE 208 288 208 256
WIRE 208 288 112 288
FLAG -384 64 0
FLAG 496 64 0
FLAG 48 -480 Vcc
FLAG -64 -352 Vcc
FLAG 48 -400 0
FLAG -112 -176 0
FLAG -96 80 Vcc
FLAG 16 -48 0
FLAG 192 144 Vcc
FLAG 1072 96 LVS+
FLAG 432 80 LVS+
FLAG 592 160 LVS+
FLAG 1072 176 LVS-
FLAG 352 256 0
FLAG -64 -240 0
FLAG 224 -352 Vcc
FLAG 224 -240 0
FLAG -16 144 0
FLAG -96 144 0
FLAG 768 240 0
FLAG 304 -176 0
SYMBOL voltage -512 -144 R0
WINDOW 123 0 0 Left 0
WINDOW 39 0 0 Left 0
SYMATTR InstName V1
SYMATTR Value 600
SYMBOL res -400 -400 R0
SYMATTR InstName R1
SYMATTR Value 1Meg
SYMBOL res -400 -320 R0
SYMATTR InstName R2
SYMATTR Value 1Meg
SYMBOL res -400 -240 R0
SYMATTR InstName R3
SYMATTR Value 1Meg
SYMBOL res -400 -160 R0
SYMATTR InstName R4
SYMATTR Value 1Meg
SYMBOL res -400 -80 R0
SYMATTR InstName R5
SYMATTR Value 60.4k
SYMBOL res 480 -400 R0
SYMATTR InstName R6
SYMATTR Value 1Meg
SYMBOL res 480 -320 R0
SYMATTR InstName R7
SYMATTR Value 1Meg
SYMBOL res 480 -240 R0
SYMATTR InstName R8
SYMATTR Value 1Meg
SYMBOL res 480 -160 R0
SYMATTR InstName R9
SYMATTR Value 1Meg
SYMBOL res 480 -80 R0
SYMATTR InstName R10
SYMATTR Value 60.4k
SYMBOL res -128 -96 R90
WINDOW 0 12 13 VBottom 2
WINDOW 3 32 56 VTop 2
SYMATTR InstName R11
SYMATTR Value 60.4k
SYMBOL res 304 -96 M90
WINDOW 0 9 20 VBottom 2
WINDOW 3 32 56 VTop 2
SYMATTR InstName R12
SYMATTR Value 60.4k
SYMBOL voltage 48 -496 R0
WINDOW 123 0 0 Left 0
WINDOW 39 0 0 Left 0
SYMATTR InstName V2
SYMATTR Value 12
SYMBOL AutoGenerated\\LM393 16 144 M0
WINDOW 0 -21 -56 Bottom 2
SYMATTR InstName U3
SYMBOL res 16 -160 R90
WINDOW 0 0 56 VBottom 2
WINDOW 3 32 56 VTop 2
SYMATTR InstName R13
SYMATTR Value 4.7k
SYMBOL res 0 -160 R0
WINDOW 0 34 51 Left 2
WINDOW 3 30 85 Left 2
SYMATTR InstName R14
SYMATTR Value 150k
SYMBOL res 16 16 R90
WINDOW 0 0 56 VBottom 2
WINDOW 3 -18 123 VTop 2
SYMATTR InstName R15
SYMATTR Value 220k
SYMBOL res 128 272 R90
WINDOW 0 0 56 VBottom 2
WINDOW 3 32 56 VTop 2
SYMATTR InstName R16
SYMATTR Value 1.2k
SYMATTR SpiceLine tol=5
SYMBOL voltage 688 -288 R0
WINDOW 123 0 0 Left 0
WINDOW 39 0 0 Left 0
SYMATTR InstName V3
SYMATTR Value PULSE(0 12 30m 0 0 12m 24m 96)
SYMBOL voltage 688 -144 R0
WINDOW 123 0 0 Left 0
WINDOW 39 0 0 Left 0
SYMATTR InstName V4
SYMATTR Value EXP(0 580 30m 100m 6 100m)
SYMBOL res 416 64 R0
SYMATTR InstName R17
SYMATTR Value 4k
SYMBOL AutoGenerated\\SQM120P10-10m1L 624 176 R180
SYMATTR InstName U4
SYMBOL zener 864 176 R180
WINDOW 0 24 64 Left 2
WINDOW 3 -37 -26 Left 2
SYMATTR InstName D1
SYMATTR Value 1N5371B
SYMATTR Description Diode
SYMATTR Type diode
SYMBOL res 992 96 R90
WINDOW 0 0 56 VBottom 2
WINDOW 3 32 56 VTop 2
SYMATTR InstName R18
SYMATTR Value 150m
SYMBOL voltage 1072 80 R0
WINDOW 0 39 40 Left 2
WINDOW 3 50 67 Left 2
WINDOW 123 0 0 Left 0
WINDOW 39 0 0 Left 0
SYMATTR InstName V5
SYMATTR Value 15V
SYMBOL res 768 160 R90
WINDOW 0 0 56 VBottom 2
WINDOW 3 32 56 VTop 2
SYMATTR InstName R19
SYMATTR Value 1k
SYMBOL cap -80 -304 R0
WINDOW 3 37 46 Left 2
SYMATTR Value 100nF
SYMATTR InstName C1
SYMBOL cap 240 -304 M0
WINDOW 3 37 46 Left 2
SYMATTR Value 100nF
SYMATTR InstName C2
SYMBOL cap -112 80 R0
WINDOW 0 -35 14 Left 2
WINDOW 3 -60 49 Left 2
SYMATTR InstName C3
SYMATTR Value 100nF
SYMBOL AutoGenerated\\BJT_5mA 304 240 R0
SYMATTR InstName U6
SYMBOL AutoGenerated\\LMX58B_LM2904B -192 -176 R0
WINDOW 3 3 -108 Top 2
SYMATTR InstName U5
SYMBOL AutoGenerated\\LMX58B_LM2904B 384 -176 M0
WINDOW 3 -1 -106 Top 2
SYMATTR InstName U7
TEXT -696 -96 Left 2 ;Accumulator
TEXT 728 -88 Left 2 ;Inverter
TEXT -696 440 Left 2 !.tran 1
TEXT 96 -448 Left 2 ;Isolated 12V DC/DC converter
TEXT 1192 128 Left 2 ;LVS
TEXT 216 352 Left 2 ;Note: The ground reference on the output side of the optocoupler should be LVS-.\nHowever, the simulator will not run if we change it.
TEXT 728 -232 Left 2 ;Noise
